tests/fuzzer/corpus_json/24_columnar_21_random_007.json
{
  "version": "1.0",
  "type": "input",
  "is_batch": false,
  "attributes": {
    "node": [
      "id",
      "u_rated"
    ],
    "source": [
      "id",
      "node",
      "status",
      "u_ref",
      "u_ref_angle",
      "sk",
      "rx_ratio",
      "z01_ratio"
    ],
    "line": [
      "id",
      "from_node",
      "to_node",
      "from_status",
      "to_status",
      "r1",
      "x1",
      "c1",
      "tan1",
      "r0",
      "x0",
      "c0",
      "tan0",
      "i_n"
    ],
    "sym_load": [
      "id",
      "node",
      "status",
      "type",
      "p_specified",
      "q_specified"
    ]
  },
  "data": {
    "node": [
      [
        0,
        400.0
      ],
      [
        1,
        400.0
      ],
      [
        2,
        400.0
      ],
      [
        3,
        400.0
      ],
      [
        4,
        400.0
      ],
      [
        5,
        400.0
      ],
      [
        6,
        400.0
      ]
    ],
    "source": [
      [
        7,
        0,
        1,
        0.9096572847253624,
        0.0,
        394884014.07353115,
        0.41063714599565415,
        1.0
      ],
      [
        8,
        6,
        1,
        1.0,
        0.0,
        582829727.1027647,
        0.1,
        1.0
      ]
    ],
    "line": [
      [
        9,
        0,
        1,
        1,
        1,
        4.548520315715511,
        1.0734909041783087,
        8.594723368917168e-08,
        0.0,
        0.3,
        0.3,
        1e-09,
        0.0,
        423.9904298570519
      ],
      [
        10,
        1,
        2,
        1,
        1,
        1.2033150006351252,
        2.7552362689569287,
        5.911050607898915e-08,
        0.0,
        0.3,
        0.3,
        1e-09,
        0.0,
        569.7991572511489
      ],
      [
        11,
        2,
        3,
        1,
        1,
        4.737248503537438,
        3.1531295786586853,
        5.829969044604073e-07,
        0.0,
        0.3,
        0.3,
        1e-09,
        0.0,
        71.24342785277899
      ],
      [
        12,
        3,
        4,
        1,
        1,
        2.927707113201934,
        0.2479465669488573,
        2.2108182345764837e-07,
        0.0,
        0.3,
        0.3,
        1e-09,
        0.0,
        561.0982489577217
      ],
      [
        13,
        4,
        5,
        1,
        1,
        0.6658740822080256,
        2.095695217857326,
        5.406858855321424e-07,
        0.0,
        0.3,
        0.3,
        1e-09,
        0.0,
        575.204552750267
      ],
      [
        14,
        5,
        6,
        1,
        1,
        2.8012863850640635,
        3.410013473806023,
        1.0305571244359135e-07,
        0.0,
        0.3,
        0.3,
        1e-09,
        0.0,
        575.4923474976744
      ]
    ],
    "sym_load": [
      [
        15,
        1,
        1,
        0,
        9548.893141911569,
        -8744.220500533538
      ],
      [
        16,
        2,
        1,
        0,
        -717.1009773016413,
        634.4049316037144
      ],
      [
        17,
        4,
        1,
        1,
        -27683.528811086726,
        -5031.4683028490135
      ],
      [
        18,
        5,
        1,
        0,
        -83628.99784084603,
        -3995.0176290874942
      ],
      [
        19,
        6,
        1,
        1,
        45889.05788784352,
        -4241.24470219627
      ]
    ]
  }
}
